OPT_V9/My_campus_w_initial_sub_3_active_25_03_11_44/powerflow_results_t13.txt
Pandapower Network Debug Info
==================================================

BUS:
       vm_pu  va_degree      p_mw    q_mvar
0   1.005592   0.212157 -0.003824 -0.000925
1   1.008154   0.349433 -0.004452  0.000000
2   1.008079   0.381761 -0.000256  0.000434
3   1.007697   0.279333 -0.002839 -0.000434
4   1.004065   0.233854 -0.002622  0.000441
5   1.006424   0.183313 -0.003223 -0.001080
6   1.010143   0.314298 -0.003980 -0.000434
7   1.002097   0.107119 -0.003269  0.000169
8   1.001310   0.061508 -0.005120 -0.000442
9   0.999971   0.000515  0.001696  0.004485
10  0.999965   0.000455  0.004633  0.003371
11  0.999960   0.000376  0.007846  0.003319
12  0.999980   0.002041  0.006562  0.001033
13  0.999973   0.002246  0.003770  0.004910
14  0.999969   0.002303  0.005080  0.005977
15  0.999989   0.000509  0.000000  0.000000
16  0.999989   0.000509  0.000000  0.000000
17  0.999983   0.002122  0.000000  0.000000
18  0.999983   0.002121  0.000000  0.000000
19  1.000000   0.000000 -0.002903 -0.015312
20  1.000000   0.000002  0.000000  0.000000
21  1.000000   0.000000  0.002702 -0.015638
22  1.000000   0.000002  0.000000  0.000000
--------------------------------------------------

LINE:
    p_from_mw  q_from_mvar   p_to_mw  q_to_mvar         pl_mw       ql_mvar  i_from_ka   i_to_ka      i_ka  vm_from_pu  va_from_degree  vm_to_pu  va_to_degree  loading_percent
0    0.002893     0.011312 -0.002893  -0.011311  1.333379e-07  1.039657e-07   0.000449  0.000449  0.000449    1.000000        0.000002  0.999989      0.000509         0.195388
1   -0.002712     0.011638  0.002712  -0.011638  3.841071e-07  2.994946e-07   0.000460  0.000460  0.000460    1.000000        0.000002  0.999983      0.002122         0.199977
2    0.014175     0.011175 -0.014175  -0.011175  2.519523e-07  1.964513e-07   0.000695  0.000695  0.000695    0.999989        0.000509  0.999971      0.000515         0.302072
3    0.006562     0.001033 -0.006562  -0.001033  1.526037e-08  1.189876e-08   0.000256  0.000256  0.000256    0.999983        0.002122  0.999980      0.002041         0.111167
4    0.008849     0.010887 -0.008849  -0.010887  1.076334e-07  8.392354e-08   0.000540  0.000540  0.000540    0.999983        0.002122  0.999973      0.002246         0.234791
5   -0.011293    -0.000863  0.011353   0.000910  5.999582e-05  4.677973e-05   0.016347  0.016347  0.016347    0.999989        0.000509  1.005592      0.212157         7.107532
6   -0.007148    -0.001471  0.007190   0.001504  4.132406e-05  3.222105e-05   0.010534  0.010534  0.010534    0.999983        0.002121  1.006424      0.183313         4.580082
7   -0.003262     0.000174  0.003269  -0.000169  7.210740e-06  5.622333e-06   0.004715  0.004715  0.004715    0.999983        0.002121  1.002097      0.107119         2.050191
8   -0.007723     0.000014  0.007733  -0.000006  1.025576e-05  7.996585e-06   0.011148  0.011148  0.011148    0.999983        0.002121  1.001310      0.061508         4.846745
9   -0.012479    -0.006690  0.012479   0.006690  6.933634e-08  5.406268e-08   0.000545  0.000545  0.000545    0.999965        0.000455  0.999971      0.000515         0.236960
10  -0.007846    -0.003319  0.007846   0.003319  3.549832e-08  2.767862e-08   0.000328  0.000328  0.000328    0.999960        0.000376  0.999965      0.000455         0.142574
11  -0.005080    -0.005977  0.005080   0.005977  3.008967e-08  2.346141e-08   0.000302  0.000302  0.000302    0.999969        0.002303  0.999973      0.002246         0.131264
12   0.004708    -0.000434 -0.004695   0.000445  1.301363e-05  1.014694e-05   0.006769  0.006769  0.006769    1.008154        0.349433  1.005592      0.212157         2.943252
13   0.002839     0.000434 -0.002834  -0.000430  5.423903e-06  4.229107e-06   0.004114  0.004114  0.004114    1.007697        0.279333  1.005592      0.212157         1.788636
14   0.000256    -0.000434 -0.000256   0.000434  2.262344e-07  1.763987e-07   0.000722  0.000722  0.000722    1.008079        0.381761  1.008154      0.349433         0.313837
15  -0.002613     0.000448  0.002622  -0.000441  8.530759e-06  6.651574e-06   0.003822  0.003822  0.003822    1.001310        0.061508  1.004065      0.233854         1.661667
16   0.003980     0.000434 -0.003966  -0.000423  1.367586e-05  1.066329e-05   0.005721  0.005721  0.005721    1.010143        0.314298  1.006424      0.183313         2.487219
--------------------------------------------------

TRAFO:
    p_hv_mw  q_hv_mvar   p_lv_mw  q_lv_mvar    pl_mw  ql_mvar   i_hv_ka   i_lv_ka  vm_hv_pu  va_hv_degree  vm_lv_pu  va_lv_degree  loading_percent
0 -0.011283   0.000137  0.011293   0.000863  0.00001    0.001  0.000434  0.016347  0.999989      0.000509  0.999989      0.000509         0.113258
1 -0.018124  -0.000283  0.018134   0.001283  0.00001    0.001  0.000698  0.026239  0.999983      0.002122  0.999983      0.002121         0.181792
2  0.002903   0.015312 -0.002893  -0.011312  0.00001    0.004  0.000129  0.000449  1.000000      0.000000  1.000000      0.000002         0.038961
3 -0.002702   0.015638  0.002712  -0.011638  0.00001    0.004  0.000131  0.000460  1.000000      0.000000  1.000000      0.000002         0.039674
--------------------------------------------------
